
This summary file was generated by TurbSim (v1.50, 25-Sep-2009) on 18-Jul-2023 at 20:18:33.


Runtime Options:

    123456  Random seed #1
    789012  Random seed #2
         F  Output binary HH turbulence parameters?
         T  Output formatted turbulence parameters?
         T  Output AeroDyn HH files?
         F  Output AeroDyn FF files?
         F  Output BLADED FF files?
         F  Output tower data?
         F  Output formatted FF files?
         F  Output coherent turbulence time step file?
         T  Clockwise rotation when looking downwind?
 0 -  NONE  IEC turbulence models scaled to exact specified standard deviation


Turbine/Model Specifications:

         5  Vertical grid-point matrix dimension
         5  Horizontal grid-point matrix dimension
     0.010  Time step [seconds]
   600.000  Analysis time [seconds]
    55.800  Usable output time [seconds]
    37.000  Hub height [m]
    30.000  Grid height [m]
    30.000  Grid width [m]
     5.000  Vertical flow angle [degrees]
    10.000  Horizontal flow angle [degrees]


Meteorological Boundary Conditions:

    IECVKM  IEC von Karman spectral model
         1  IEC standard: IEC 61400-1 Ed. 2: 1999
    16.000  Percent turbulence intensity, IEC 61400-1 Ed. 2: 1999
       NTM  IEC Normal Turbulence Model
       N/A  IEC Extreme Turbulence Model (ETM) "c" parameter [m/s]
       IEC  Wind profile type
    10.000  Reference height [m]
    20.000  Reference wind speed [m/s]
       N/A  Jet height [m]
     0.200  Power law exponent
     0.030  Surface roughness length [m]


You have requested that the following file(s) be generated:

   .\Test\vonKarm_15.dat (formatted turbulence-parameter file)
   .\Test\vonKarm_15.hh  (AeroDyn hub-height file)


Turbulence Simulation Scaling Parameter Summary:

   Turbulence model used                            =  IEC von Karman
   Turbulence characteristic                        =  User-specified
   IEC standard                                     =  IEC 61400-1 Ed. 2: 1999
   Mean wind speed at hub height                    =   24.504 m/s
   Characteristic value of standard deviation       =    3.921 m/s
   Turbulence scale                                 =   21.000 m
   Isotropic integral scale                         =   73.500 m
   Characteristic value of hub turbulence intensity =   16.000%
   Gradient Richardson number                       =    0.000

   Wind profile type                                =  Power law on rotor disk, logarithmic elsewhere
   Power law exponent                               =    0.200
   Mean shear across rotor disk                     =    0.138 (m/s)/m
   Assumed rotor diameter                           =   30.000 m
   Surface roughness length                         =    0.030 m

   Number of time steps in the FFT                  =    60060
   Number of time steps output                      =     5703


Mean Flow Angles:

   Vertical   =   5.0 degrees
   Horizontal =  10.0 degrees

Mean Wind Speed Profile:

   Height    Wind Speed   Horizontal Angle  U-comp (X)   V-comp (Y)   W-comp (Z)
     (m)        (m/s)         (degrees)       (m/s)        (m/s)        (m/s)   
   ------    ----------   ----------------  ----------   ----------   ----------
     52.0       26.23           10.00         25.73         4.54         2.29
     44.5       25.43           10.00         24.94         4.40         2.22
     37.0       24.50           10.00         24.04         4.24         2.14
     29.5       23.42           10.00         22.98         4.05         2.04
     22.0       22.08           10.00         21.67         3.82         1.92


Harvested Random Seeds after Generation of the Random Numbers:

   1197549943 Harvested seed #1
    777592947 Harvested seed #2


Hub-Height Simulated Turbulence Statistical Summary:

   Type of Wind        Min (m/s)   Mean (m/s)    Max (m/s)  Sigma (m/s)       TI (%)
   ----------------    ---------   ----------    ---------  -----------       ------
   Longitudinal (u)        11.35        24.50        37.74        3.818       15.580
   Lateral (v)            -19.70         0.00        14.70        3.889       15.871
   Vertical (w)           -13.02         0.00        14.53        3.889       15.871
   U component             10.99        24.04        36.74        3.796       15.790
   V component            -15.02         4.24        18.69        3.910       16.266
   W component            -10.89         2.14        15.94        3.889       16.178
   Horizontal (U&V)        11.00        24.72        37.58        3.817       15.442
   Total                   11.38        25.12        37.96        3.781       15.053

                       Min Reynolds     Mean Reynolds    Max Reynolds    Correlation
   Product             Stress (m/s)^2   Stress (m/s)^2   Stress (m/s)^2  Coefficient
   ----------------    --------------   --------------   --------------  -----------
   u'w'                   -158.211             0.036           122.154         0.002
   u'v'                    -89.255             0.583            95.911         0.039
   v'w'                    -93.416             0.542            94.691         0.036


   Friction Velocity (Ustar)  =      0.189 m/s
   Maximum Instantaneous TKE  =    198.836 (m/s)^2
   Maximum Instantaneous CTKE =     83.921 (m/s)^2


Grid Point Variance Summary:

   Y-coord  -15.00   -7.50    0.00    7.50   15.00

   Height   Standard deviation at grid points for the u component:
    52.00    3.869   3.901   3.846   3.769   3.865
    44.50    4.113   3.899   3.903   3.987   3.969
    37.00    4.178   4.098   3.818   4.049   3.966
    29.50    3.942   3.903   3.953   4.065   4.111
    22.00    3.886   3.784   3.909   4.082   4.110

   Height   Standard deviation at grid points for the v component:
    52.00    3.889   3.889   3.889   3.889   3.889
    44.50    3.889   3.889   3.889   3.889   3.889
    37.00    3.889   3.889   3.889   3.889   3.889
    29.50    3.889   3.889   3.889   3.889   3.889
    22.00    3.889   3.889   3.889   3.889   3.889

   Height   Standard deviation at grid points for the w component:
    52.00    3.889   3.889   3.889   3.889   3.889
    44.50    3.889   3.889   3.889   3.889   3.889
    37.00    3.889   3.889   3.889   3.889   3.889
    29.50    3.889   3.889   3.889   3.889   3.889
    22.00    3.889   3.889   3.889   3.889   3.889

   Mean standard deviation across all grid points:
      u component:    3.959 m/s
      v component:    3.889 m/s
      w component:    3.889 m/s

Nyquist frequency of turbulent wind field =        50.000 Hz


Processing complete.  0.51562 CPU seconds used.
