
This summary file was generated by TurbSim (v1.50, 25-Sep-2009) on 31-Jul-2023 at 09:58:15.


Runtime Options:

1131966282  Random seed #1
-540347083  Random seed #2
         F  Output binary HH turbulence parameters?
         F  Output formatted turbulence parameters?
         T  Output AeroDyn HH files?
         F  Output AeroDyn FF files?
         F  Output BLADED FF files?
         F  Output tower data?
         F  Output formatted FF files?
         F  Output coherent turbulence time step file?
         T  Clockwise rotation when looking downwind?
 0 -  NONE  IEC turbulence models scaled to exact specified standard deviation


Turbine/Model Specifications:

         5  Vertical grid-point matrix dimension
         5  Horizontal grid-point matrix dimension
     0.010  Time step [seconds]
   600.000  Analysis time [seconds]
   600.000  Usable output time [seconds]
    90.000  Hub height [m]
   162.000  Grid height [m]
   162.000  Grid width [m]
     0.000  Vertical flow angle [degrees]
     0.000  Horizontal flow angle [degrees]


Meteorological Boundary Conditions:

    IECVKM  IEC von Karman spectral model
         1  IEC standard: IEC 61400-1 Ed. 3: 2005
         B  IEC turbulence characteristic
       NTM  IEC Normal Turbulence Model
       N/A  IEC Extreme Turbulence Model (ETM) "c" parameter [m/s]
       IEC  Wind profile type
    90.000  Reference height [m]
    20.000  Reference wind speed [m/s]
       N/A  Jet height [m]
     0.200  Power law exponent
     0.030  Surface roughness length [m]


You have requested that the following file(s) be generated:

   .\myModel\vonKarm_15.hh  (AeroDyn hub-height file)


Turbulence Simulation Scaling Parameter Summary:

   Turbulence model used                            =  IEC von Karman
   Turbulence characteristic                        =  B
   IEC turbulence type                              =  Normal Turbulence Model
   IEC standard                                     =  IEC 61400-1 Ed. 3: 2005
   Mean wind speed at hub height                    =   20.000 m/s
   Expected value of turbulence intensity at 15 m/s =   14.000%
   Characteristic value of standard deviation       =    2.884 m/s
   Turbulence scale                                 =   42.000 m
   Isotropic integral scale                         =  340.200 m
   Characteristic value of hub turbulence intensity =   14.420%
   Gradient Richardson number                       =    0.000

   Wind profile type                                =  Power law on rotor disk, logarithmic elsewhere
   Power law exponent                               =    0.200
   Mean shear across rotor disk                     =    0.062 (m/s)/m
   Assumed rotor diameter                           =  162.000 m
   Surface roughness length                         =    0.030 m

   Number of time steps in the FFT                  =    60840
   Number of time steps output                      =    60811


Mean Flow Angles:

   Vertical   =   0.0 degrees
   Horizontal =   0.0 degrees

Mean Wind Speed Profile:

   Height    Wind Speed   Horizontal Angle  U-comp (X)   V-comp (Y)   W-comp (Z)
     (m)        (m/s)         (degrees)       (m/s)        (m/s)        (m/s)   
   ------    ----------   ----------------  ----------   ----------   ----------
    171.0       22.74            0.00         22.74         0.00         0.00
    130.5       21.54            0.00         21.54         0.00         0.00
     90.0       20.00            0.00         20.00         0.00         0.00
     49.5       17.75            0.00         17.75         0.00         0.00
      9.0       12.62            0.00         12.62         0.00         0.00


Harvested Random Seeds after Generation of the Random Numbers:

    471519949 Harvested seed #1
    923362674 Harvested seed #2


Hub-Height Simulated Turbulence Statistical Summary:

   Type of Wind        Min (m/s)   Mean (m/s)    Max (m/s)  Sigma (m/s)       TI (%)
   ----------------    ---------   ----------    ---------  -----------       ------
   Longitudinal (u)         9.92        20.00        29.75        2.917       14.587
   Lateral (v)            -10.39         0.00        12.21        2.861       14.304
   Vertical (w)            -9.84         0.00        11.17        2.861       14.304
   U component              9.92        20.00        29.75        2.917       14.587
   V component            -10.39         0.00        12.21        2.861       14.304
   W component             -9.84         0.00        11.17        2.861       14.304
   Horizontal (U&V)         9.93        20.21        29.77        2.899       14.348
   Total                   10.48        20.41        29.99        2.897       14.193

                       Min Reynolds     Mean Reynolds    Max Reynolds    Correlation
   Product             Stress (m/s)^2   Stress (m/s)^2   Stress (m/s)^2  Coefficient
   ----------------    --------------   --------------   --------------  -----------
   u'w'                    -56.286            -0.583            50.786        -0.070
   u'v'                    -54.900            -0.138            61.791        -0.017
   v'w'                    -58.777             0.468            60.566         0.057


   Friction Velocity (Ustar)  =      0.764 m/s
   Maximum Instantaneous TKE  =     75.916 (m/s)^2
   Maximum Instantaneous CTKE =     37.325 (m/s)^2


Grid Point Variance Summary:

   Y-coord  -81.00  -40.50    0.00   40.50   81.00

   Height   Standard deviation at grid points for the u component:
   171.00    2.757   2.744   2.864   2.904   2.784
   130.50    2.879   2.840   2.885   2.813   2.634
    90.00    2.800   2.700   2.917   2.846   2.899
    49.50    2.629   2.781   2.795   2.766   2.856
     9.00    2.857   2.913   2.859   2.999   2.977

   Height   Standard deviation at grid points for the v component:
   171.00    2.861   2.861   2.861   2.861   2.861
   130.50    2.861   2.861   2.861   2.861   2.861
    90.00    2.861   2.861   2.861   2.861   2.861
    49.50    2.861   2.861   2.861   2.861   2.861
     9.00    2.861   2.861   2.861   2.861   2.861

   Height   Standard deviation at grid points for the w component:
   171.00    2.861   2.861   2.861   2.861   2.861
   130.50    2.861   2.861   2.861   2.861   2.861
    90.00    2.861   2.861   2.861   2.861   2.861
    49.50    2.861   2.861   2.861   2.861   2.861
     9.00    2.861   2.861   2.861   2.861   2.861

   Mean standard deviation across all grid points:
      u component:    2.828 m/s
      v component:    2.861 m/s
      w component:    2.861 m/s

Nyquist frequency of turbulent wind field =        50.000 Hz


Processing complete.  0.78125 CPU seconds used.
