
This summary file was generated by TurbSim (v1.50, 25-Sep-2009) on 22-Jul-2023 at 10:25:57.


Runtime Options:

**********  Random seed #1
**********  Random seed #2
         F  Output binary HH turbulence parameters?
         F  Output formatted turbulence parameters?
         T  Output AeroDyn HH files?
         F  Output AeroDyn FF files?
         F  Output BLADED FF files?
         F  Output tower data?
         F  Output formatted FF files?
         F  Output coherent turbulence time step file?
         T  Clockwise rotation when looking downwind?
 0 -  NONE  IEC turbulence models scaled to exact specified standard deviation


Turbine/Model Specifications:

         5  Vertical grid-point matrix dimension
         5  Horizontal grid-point matrix dimension
     0.010  Time step [seconds]
  3000.000  Analysis time [seconds]
  3000.000  Usable output time [seconds]
    90.000  Hub height [m]
   162.000  Grid height [m]
   162.000  Grid width [m]
     0.000  Vertical flow angle [degrees]
     0.000  Horizontal flow angle [degrees]


Meteorological Boundary Conditions:

    IECVKM  IEC von Karman spectral model
         1  IEC standard: IEC 61400-1 Ed. 3: 2005
         B  IEC turbulence characteristic
       NTM  IEC Normal Turbulence Model
       N/A  IEC Extreme Turbulence Model (ETM) "c" parameter [m/s]
       IEC  Wind profile type
    90.000  Reference height [m]
    20.000  Reference wind speed [m/s]
       N/A  Jet height [m]
     0.200  Power law exponent
     0.030  Surface roughness length [m]


You have requested that the following file(s) be generated:

   C:/Users/ghhh7/Turbsim/myModel/vonKarm_15.hh  (AeroDyn hub-height file)


Turbulence Simulation Scaling Parameter Summary:

   Turbulence model used                            =  IEC von Karman
   Turbulence characteristic                        =  B
   IEC turbulence type                              =  Normal Turbulence Model
   IEC standard                                     =  IEC 61400-1 Ed. 3: 2005
   Mean wind speed at hub height                    =   20.000 m/s
   Expected value of turbulence intensity at 15 m/s =   14.000%
   Characteristic value of standard deviation       =    2.884 m/s
   Turbulence scale                                 =   42.000 m
   Isotropic integral scale                         =  340.200 m
   Characteristic value of hub turbulence intensity =   14.420%
   Gradient Richardson number                       =    0.000

   Wind profile type                                =  Power law on rotor disk, logarithmic elsewhere
   Power law exponent                               =    0.200
   Mean shear across rotor disk                     =    0.062 (m/s)/m
   Assumed rotor diameter                           =  162.000 m
   Surface roughness length                         =    0.030 m

   Number of time steps in the FFT                  =   300960
   Number of time steps output                      =   300811


Mean Flow Angles:

   Vertical   =   0.0 degrees
   Horizontal =   0.0 degrees

Mean Wind Speed Profile:

   Height    Wind Speed   Horizontal Angle  U-comp (X)   V-comp (Y)   W-comp (Z)
     (m)        (m/s)         (degrees)       (m/s)        (m/s)        (m/s)   
   ------    ----------   ----------------  ----------   ----------   ----------
    171.0       22.74            0.00         22.74         0.00         0.00
    130.5       21.54            0.00         21.54         0.00         0.00
     90.0       20.00            0.00         20.00         0.00         0.00
     49.5       17.75            0.00         17.75         0.00         0.00
      9.0       12.62            0.00         12.62         0.00         0.00


Harvested Random Seeds after Generation of the Random Numbers:

   1227246139 Harvested seed #1
    482843273 Harvested seed #2


Hub-Height Simulated Turbulence Statistical Summary:

   Type of Wind        Min (m/s)   Mean (m/s)    Max (m/s)  Sigma (m/s)       TI (%)
   ----------------    ---------   ----------    ---------  -----------       ------
   Longitudinal (u)         8.72        20.00        30.43        2.834       14.168
   Lateral (v)            -12.33         0.00        10.99        2.868       14.339
   Vertical (w)           -11.14         0.00        14.24        2.868       14.339
   U component              8.72        20.00        30.43        2.834       14.168
   V component            -12.33         0.00        10.99        2.868       14.339
   W component            -11.14         0.00        14.24        2.868       14.339
   Horizontal (U&V)         8.75        20.21        30.84        2.830       14.006
   Total                    9.05        20.41        30.85        2.816       13.799

                       Min Reynolds     Mean Reynolds    Max Reynolds    Correlation
   Product             Stress (m/s)^2   Stress (m/s)^2   Stress (m/s)^2  Coefficient
   ----------------    --------------   --------------   --------------  -----------
   u'w'                    -66.490            -0.108            60.257        -0.013
   u'v'                    -80.813            -0.172            75.364        -0.021
   v'w'                    -73.894             0.175            75.889         0.021


   Friction Velocity (Ustar)  =      0.328 m/s
   Maximum Instantaneous TKE  =    113.084 (m/s)^2
   Maximum Instantaneous CTKE =     60.780 (m/s)^2


Grid Point Variance Summary:

   Y-coord  -81.00  -40.50    0.00   40.50   81.00

   Height   Standard deviation at grid points for the u component:
   171.00    2.829   2.862   2.787   2.795   2.779
   130.50    2.853   2.800   2.774   2.727   2.816
    90.00    2.850   2.868   2.834   2.836   2.867
    49.50    2.878   2.879   2.904   2.898   2.907
     9.00    2.871   2.869   2.824   2.905   2.840

   Height   Standard deviation at grid points for the v component:
   171.00    2.868   2.868   2.868   2.868   2.868
   130.50    2.868   2.868   2.868   2.868   2.868
    90.00    2.868   2.868   2.868   2.868   2.868
    49.50    2.868   2.868   2.868   2.868   2.868
     9.00    2.868   2.868   2.868   2.868   2.868

   Height   Standard deviation at grid points for the w component:
   171.00    2.868   2.868   2.868   2.868   2.868
   130.50    2.868   2.868   2.868   2.868   2.868
    90.00    2.868   2.868   2.868   2.868   2.868
    49.50    2.868   2.868   2.868   2.868   2.868
     9.00    2.868   2.868   2.868   2.868   2.868

   Mean standard deviation across all grid points:
      u component:    2.842 m/s
      v component:    2.868 m/s
      w component:    2.868 m/s

Nyquist frequency of turbulent wind field =        50.000 Hz


Processing complete.  4.3281 CPU seconds used.
